REMARK  Name = minimized\NPAtlas_1.pdb
REMARK  21 active torsions:
REMARK  status: ('A' for Active; 'I' for Inactive)
REMARK    1  A    between atoms: C01_38  and  C02_39
REMARK    2  A    between atoms: C02_39  and  C03_40
REMARK    3  A    between atoms: C03_40  and  C04_41
REMARK    4  A    between atoms: C03_40  and  C05_42
REMARK    5  A    between atoms: C05_42  and  C06_43
REMARK    6  A    between atoms: C05_42  and  N_45
REMARK    7  A    between atoms: C06_43  and  O07_44
REMARK    8  A    between atoms: C08_46  and  C10_48
REMARK    9  A    between atoms: C11_49  and  C12_50
REMARK   10  A    between atoms: C12_50  and  C13_51
REMARK   11  A    between atoms: C12_50  and  C14_52
REMARK   12  A    between atoms: C12_50  and  O_61
REMARK   13  A    between atoms: C14_52  and  C15_53
REMARK   14  A    between atoms: C14_52  and  O22_60
REMARK   15  A    between atoms: C15_53  and  C16_54
REMARK   16  A    between atoms: C15_53  and  C17_55
REMARK   17  A    between atoms: C17_55  and  C18_56
REMARK   18  A    between atoms: C18_56  and  C19_57
REMARK   19  A    between atoms: C18_56  and  O21_59
REMARK   20  A    between atoms: C19_57  and  C20_58
REMARK   21  A    between atoms: O_61  and  C_62
REMARK                            x       y       z     vdW  Elec       q    Type
REMARK                         _______ _______ _______ _____ _____    ______ ____
ROOT
ATOM      1  C12 UNK     0       1.384   2.231   1.129  0.00  0.00    +0.000 C 
ATOM      2  C13 UNK     0       1.807   1.982  -0.331  0.00  0.00    +0.000 C 
ENDROOT
BRANCH   1   4
ATOM      3  C10 UNK     0      -0.007   0.064   1.079  0.00  0.00    +0.000 C 
ATOM      4  C11 UNK     0       0.601   1.067   1.734  0.00  0.00    +0.000 C 
BRANCH   3   7
ATOM      5  H14 UNK     0      -1.498  -1.612   0.032  0.00  0.00    +0.000 HD
ATOM      6  N   UNK     0      -1.453  -1.824   1.019  0.00  0.00    +0.000 N 
ATOM      7  C08 UNK     0      -0.735  -0.987   1.836  0.00  0.00    +0.000 C 
ATOM      8  O09 UNK     0      -0.679  -1.078   3.055  0.00  0.00    +0.000 OA
BRANCH   6   9
ATOM      9  C05 UNK     0      -2.363  -2.870   1.494  0.00  0.00    +0.000 C 
BRANCH   9  10
ATOM     10  C03 UNK     0      -3.803  -2.347   1.786  0.00  0.00    +0.000 C 
ATOM     11  C04 UNK     0      -4.420  -1.754   0.510  0.00  0.00    +0.000 C 
BRANCH  10  13
ATOM     12  C01 UNK     0      -5.306  -1.011   3.377  0.00  0.00    +0.000 C 
ATOM     13  C02 UNK     0      -3.879  -1.345   2.957  0.00  0.00    +0.000 C 
ENDBRANCH  10  13
ENDBRANCH   9  10
BRANCH   9  14
ATOM     14  C06 UNK     0      -1.779  -3.742   2.627  0.00  0.00    +0.000 C 
BRANCH  14  16
ATOM     15  H13 UNK     0      -2.153  -5.426   3.515  0.00  0.00    +0.000 HD
ATOM     16  O07 UNK     0      -2.535  -4.946   2.760  0.00  0.00    +0.000 OA
ENDBRANCH  14  16
ENDBRANCH   9  14
ENDBRANCH   6   9
ENDBRANCH   3   7
ENDBRANCH   1   4
BRANCH   1  17
ATOM     17  O   UNK     0       2.537   2.433   1.972  0.00  0.00    +0.000 OA
ATOM     18  C   UNK     0       3.553   1.440   1.914  0.00  0.00    +0.000 C 
ENDBRANCH   1  17
BRANCH   1  19
ATOM     19  C14 UNK     0       0.464   3.509   1.260  0.00  0.00    +0.000 C 
BRANCH  19  21
ATOM     20  H34 UNK     0      -1.330   4.059   0.685  0.00  0.00    +0.000 HD
ATOM     21  O22 UNK     0      -0.713   3.347   0.442  0.00  0.00    +0.000 OA
ENDBRANCH  19  21
BRANCH  19  22
ATOM     22  C15 UNK     0       1.054   4.928   0.980  0.00  0.00    +0.000 C 
ATOM     23  C16 UNK     0       1.398   5.176  -0.493  0.00  0.00    +0.000 C 
BRANCH  22  24
ATOM     24  C17 UNK     0       2.215   5.294   1.932  0.00  0.00    +0.000 C 
BRANCH  24  25
ATOM     25  C18 UNK     0       2.499   6.803   2.034  0.00  0.00    +0.000 C 
BRANCH  25  27
ATOM     26  H33 UNK     0       3.909   6.810   0.681  0.00  0.00    +0.000 HD
ATOM     27  O21 UNK     0       3.069   7.280   0.819  0.00  0.00    +0.000 OA
ENDBRANCH  25  27
BRANCH  25  28
ATOM     28  C19 UNK     0       3.462   7.102   3.191  0.00  0.00    +0.000 C 
ATOM     29  C20 UNK     0       3.720   8.594   3.359  0.00  0.00    +0.000 C 
ENDBRANCH  25  28
ENDBRANCH  24  25
ENDBRANCH  22  24
ENDBRANCH  19  22
ENDBRANCH   1  19
TORSDOF 15
